data_1
_audit_creation_method   'Generated by vasp2cif'
_cell_length_a    2.51251
_cell_length_b    2.51251
_cell_length_c    20.0
_cell_angle_alpha    90.0
_cell_angle_beta    90.0
_cell_angle_gamma    120.0

_symmetry_space_group_name_H-M    'P 1'
loop_
_atom_site_label
_atom_site_type_symbol
_atom_site_fract_x
_atom_site_fract_y
_atom_site_fract_z
_atom_site_occupancy
B1   B   0.656666666666667   0.333333333333333   0.490000000000000   1.0
N2   N   0.333333333333333   0.676666666666667   0.500000000000000   1.0


