data_1
_audit_creation_method   'Generated by vasp2cif'
_cell_length_a    3.18457316169
_cell_length_b    3.18457316169
_cell_length_c    25.0
_cell_angle_alpha    90.0
_cell_angle_beta    90.0
_cell_angle_gamma    120.0

_symmetry_space_group_name_H-M    'P 1'
loop_
_atom_site_label
_atom_site_type_symbol
_atom_site_fract_x
_atom_site_fract_y
_atom_site_fract_z
_atom_site_occupancy
S1   S   0.333333000000000   0.666667000000000   0.096194667070072   1.0
S2   S   0.323333000000000   0.656667000000000   0.221385418929929   1.0
Mo3   Mo   0.666667000000000   0.343333000000000   0.158790043000000   1.0


