data_1
_audit_creation_method   'Generated by vasp2cif'
_cell_length_a    5.46872795296
_cell_length_b    5.46872795296
_cell_length_c    5.46872795296
_cell_angle_alpha    90.0
_cell_angle_beta    90.0
_cell_angle_gamma    90.0

_symmetry_space_group_name_H-M    'P 1'
loop_
_atom_site_label
_atom_site_type_symbol
_atom_site_fract_x
_atom_site_fract_y
_atom_site_fract_z
_atom_site_occupancy
Si1   Si   -0.750000000000000   0.750000000000000   0.250000000000000   1.0
Si2   Si   0.750000000000000   -0.250000000000000   0.750000000000000   1.0
Si3   Si   1.250000000000000   1.250000000000000   -0.210000000000000   1.0
Si4   Si   -0.266666600000000   -0.760000000000000   0.250000000000000   1.0
Si5   Si   1.500000000000000   -0.500000000000000   0.500000000000000   1.0
Si6   Si   -0.500000000000000   1.000000000000000   -0.000000000000000   1.0
Si7   Si   1.000000000000000   1.510000000000000   1.000000000000000   1.0
Si8   Si   0.000000000000000   0.010000000000000   0.500000000000000   1.0


