# generated using pymatgen
data_WSe2
_symmetry_space_group_name_H-M   'P 1'
_cell_length_a   11.50055572
_cell_length_b   11.50055572
_cell_length_c   29.48880000
_cell_angle_alpha   90.00000000
_cell_angle_beta   90.00000000
_cell_angle_gamma   120.00000000
_symmetry_Int_Tables_number   1
_chemical_formula_structural   WSe2
_chemical_formula_sum   'W12 Se24'
_cell_volume   3377.73352522
_cell_formula_units_Z   12
loop_
 _symmetry_equiv_pos_site_id
 _symmetry_equiv_pos_as_xyz
  1  'x, y, z'
loop_
 _atom_site_type_symbol
 _atom_site_label
 _atom_site_symmetry_multiplicity
 _atom_site_fract_x
 _atom_site_fract_y
 _atom_site_fract_z
 _atom_site_occupancy
  W  W1  1  0.666648  0.499977  0.394123  1
  W  W2  1  0.499982  0.666643  0.394123  1
  W  W3  1  0.666648  0.999977  0.394123  1
  W  W4  1  0.499982  0.166643  0.394123  1
  W  W5  1  0.333315  0.333310  0.394123  1
  W  W6  1  0.166648  0.499977  0.394123  1
  W  W7  1  0.999982  0.666643  0.394123  1
  W  W8  1  0.333315  0.833310  0.394123  1
  W  W9  1  0.166648  0.999977  0.394123  1
  W  W10  1  0.999982  0.166643  0.394123  1
  W  W11  1  0.833315  0.333310  0.394123  1
  W  W12  1  0.833315  0.833310  0.394123  1
  Se  Se13  1  0.666677  0.666678  0.337159  1
  Se  Se14  1  0.500010  0.833345  0.337159  1
  Se  Se15  1  0.666677  0.166678  0.337159  1
  Se  Se16  1  0.500010  0.333345  0.337159  1
  Se  Se17  1  0.333343  0.500012  0.337159  1
  Se  Se18  1  0.166677  0.666678  0.337159  1
  Se  Se19  1  0.000010  0.833345  0.337159  1
  Se  Se20  1  0.333343  0.000012  0.337159  1
  Se  Se21  1  0.166677  0.166678  0.337159  1
  Se  Se22  1  0.000010  0.333345  0.337159  1
  Se  Se23  1  0.833343  0.500012  0.337159  1
  Se  Se24  1  0.833343  0.000012  0.337159  1
  Se  Se25  1  0.666677  0.666678  0.451087  1
  Se  Se26  1  0.500010  0.833345  0.451087  1
  Se  Se27  1  0.666677  0.166678  0.451087  1
  Se  Se28  1  0.500010  0.333345  0.451087  1
  Se  Se29  1  0.333343  0.500012  0.451087  1
  Se  Se30  1  0.166677  0.666678  0.451087  1
  Se  Se31  1  0.000010  0.833345  0.451087  1
  Se  Se32  1  0.333343  0.000012  0.451087  1
  Se  Se33  1  0.166677  0.166678  0.451087  1
  Se  Se34  1  0.000010  0.333345  0.451087  1
  Se  Se35  1  0.833343  0.500012  0.451087  1
  Se  Se36  1  0.833343  0.000012  0.451087  1
